60
MOL
O     41.039000   17.188000   11.242000
C     40.735000   17.514000   12.421000
O     40.373000   18.806000   12.715000
C     40.775000   16.529000   13.510000
O     42.056000   15.953000   13.530000
C     42.358000   15.038000   14.508000
C     43.256000   15.323000   15.509000
C     43.917000   16.597000   15.777000
O     43.649000   17.652000   15.139000
O     44.856000   16.621000   16.780000
S     43.357000   13.980000   16.515000
C     42.242000   13.020000   15.683000
C     41.930000   11.624000   16.062000
C     42.944000   10.838000   16.638000
C     42.707000    9.503000   16.987000
C     41.439000    8.945000   16.773000
C     40.409000    9.736000   16.226000
N     39.103000    9.223000   15.992000
C     38.749000    8.357000   14.885000
C     39.987000    7.552000   14.535000
C     39.710000    6.561000   13.419000
N     38.481000    5.785000   13.615000
S     38.713000    4.094000   13.851000
O     37.419000    3.343000   13.936000
O     39.660000    3.510000   12.845000
C     39.500000    3.930000   15.446000
C     39.940000    2.526000   15.686000
C     39.035000    1.583000   16.185000
C     39.444000    0.263000   16.396000
C     40.758000   -0.116000   16.107000
C     41.663000    0.824000   15.605000
C     41.255000    2.144000   15.393000
C     37.310000    6.381000   14.270000
C     37.661000    7.397000   15.346000
C     40.656000   11.068000   15.876000
C     41.780000   13.756000   14.586000
Br    40.555000   13.098000   13.269000
H     40.575000   17.028000   14.470000
H     40.010000   15.755000   13.351000
H     43.936000   11.278000   16.816000
H     43.512000    8.895000   17.426000
H     41.248000    7.893000   17.031000
H     38.358000    9.483000   16.654000
H     38.394000    8.939000   14.021000
H     40.782000    8.240000   14.213000
H     40.294000    6.988000   15.428000
H     39.624000    7.117000   12.473000
H     40.546000    5.845000   13.407000
H     40.377000    4.593000   15.483000
H     38.773000    4.206000   16.224000
H     38.000000    1.881000   16.411000
H     38.732000   -0.477000   16.790000
H     41.080000   -1.155000   16.274000
H     42.697000    0.525000   15.377000
H     41.967000    2.883000   14.997000
H     36.702000    6.883000   13.503000
H     36.768000    5.562000   14.765000
H     36.760000    7.975000   15.598000
H     38.038000    6.850000   16.223000
H     39.847000   11.681000   15.453000
